# generated using pymatgen
data_Cd53Pd16
_symmetry_space_group_name_H-M   'P 1'
_cell_length_a   8.78681973
_cell_length_b   8.78681973
_cell_length_c   37.65772318
_cell_angle_alpha   90.00000000
_cell_angle_beta   90.00000000
_cell_angle_gamma   109.46309845
_symmetry_Int_Tables_number   1
_chemical_formula_structural   Cd53Pd16
_chemical_formula_sum   'Cd106 Pd32'
_cell_volume   2741.34056009
_cell_formula_units_Z   2
loop_
 _symmetry_equiv_pos_site_id
 _symmetry_equiv_pos_as_xyz
  1  'x, y, z'
loop_
 _atom_site_type_symbol
 _atom_site_label
 _atom_site_symmetry_multiplicity
 _atom_site_fract_x
 _atom_site_fract_y
 _atom_site_fract_z
 _atom_site_occupancy
  Cd  Cd0  1  0.56821993  0.21240665  0.29278729  1
  Cd  Cd1  1  0.43178007  0.78759335  0.70721271  1
  Cd  Cd2  1  0.93178007  0.28759335  0.79278729  1
  Cd  Cd3  1  0.71240665  0.06821993  0.20721271  1
  Cd  Cd4  1  0.06821993  0.71240665  0.20721271  1
  Cd  Cd5  1  0.28759335  0.93178007  0.79278729  1
  Cd  Cd6  1  0.78759335  0.43178007  0.70721271  1
  Cd  Cd7  1  0.21240665  0.56821993  0.29278729  1
  Cd  Cd8  1  0.30729755  0.08661734  0.34612750  1
  Cd  Cd9  1  0.69270245  0.91338266  0.65387250  1
  Cd  Cd10  1  0.19270245  0.41338266  0.84612750  1
  Cd  Cd11  1  0.58661734  0.80729755  0.15387250  1
  Cd  Cd12  1  0.80729755  0.58661734  0.15387250  1
  Cd  Cd13  1  0.41338266  0.19270245  0.84612750  1
  Cd  Cd14  1  0.91338266  0.69270245  0.65387250  1
  Cd  Cd15  1  0.08661734  0.30729755  0.34612750  1
  Cd  Cd16  1  0.26461344  0.91265148  0.27694281  1
  Cd  Cd17  1  0.73538656  0.08734852  0.72305719  1
  Cd  Cd18  1  0.23538656  0.58734852  0.77694281  1
  Cd  Cd19  1  0.41265148  0.76461344  0.22305719  1
  Cd  Cd20  1  0.76461344  0.41265148  0.22305719  1
  Cd  Cd21  1  0.58734852  0.23538656  0.77694281  1
  Cd  Cd22  1  0.08734852  0.73538656  0.72305719  1
  Cd  Cd23  1  0.91265148  0.26461344  0.27694281  1
  Cd  Cd24  1  0.48369089  0.48369089  0.19103209  1
  Cd  Cd25  1  0.51630911  0.51630911  0.80896791  1
  Cd  Cd26  1  0.01630911  0.01630911  0.69103209  1
  Cd  Cd27  1  0.98369089  0.98369089  0.30896791  1
  Cd  Cd28  1  0.45196734  0.45196734  0.34661986  1
  Cd  Cd29  1  0.54803266  0.54803266  0.65338014  1
  Cd  Cd30  1  0.04803266  0.04803266  0.84661986  1
  Cd  Cd31  1  0.95196734  0.95196734  0.15338014  1
  Cd  Cd32  1  0.41426748  0.77195192  0.08494758  1
  Cd  Cd33  1  0.58573252  0.22804808  0.91505242  1
  Cd  Cd34  1  0.08573252  0.72804808  0.58494758  1
  Cd  Cd35  1  0.27195192  0.91426748  0.41505242  1
  Cd  Cd36  1  0.91426748  0.27195192  0.41505242  1
  Cd  Cd37  1  0.72804808  0.08573252  0.58494758  1
  Cd  Cd38  1  0.22804808  0.58573252  0.91505242  1
  Cd  Cd39  1  0.77195192  0.41426748  0.08494758  1
  Cd  Cd40  1  0.03665039  0.03665039  0.07666537  1
  Cd  Cd41  1  0.96334961  0.96334961  0.92333463  1
  Cd  Cd42  1  0.46334961  0.46334961  0.57666537  1
  Cd  Cd43  1  0.53665039  0.53665039  0.42333463  1
  Cd  Cd44  1  0.72315259  0.07918605  0.10237595  1
  Cd  Cd45  1  0.27684741  0.92081395  0.89762405  1
  Cd  Cd46  1  0.77684741  0.42081395  0.60237595  1
  Cd  Cd47  1  0.57918605  0.22315259  0.39762405  1
  Cd  Cd48  1  0.22315259  0.57918605  0.39762405  1
  Cd  Cd49  1  0.42081395  0.77684741  0.60237595  1
  Cd  Cd50  1  0.92081395  0.27684741  0.89762405  1
  Cd  Cd51  1  0.07918605  0.72315259  0.10237595  1
  Cd  Cd52  1  0.68288664  0.91663809  0.03178297  1
  Cd  Cd53  1  0.31711336  0.08336191  0.96821703  1
  Cd  Cd54  1  0.81711336  0.58336191  0.53178297  1
  Cd  Cd55  1  0.41663809  0.18288664  0.46821703  1
  Cd  Cd56  1  0.18288664  0.41663809  0.46821703  1
  Cd  Cd57  1  0.58336191  0.81711336  0.53178297  1
  Cd  Cd58  1  0.08336191  0.31711336  0.96821703  1
  Cd  Cd59  1  0.91663809  0.68288664  0.03178297  1
  Cd  Cd60  1  0.40062565  0.15848257  0.21966919  1
  Cd  Cd61  1  0.59937435  0.84151743  0.78033081  1
  Cd  Cd62  1  0.09937435  0.34151743  0.71966919  1
  Cd  Cd63  1  0.65848257  0.90062565  0.28033081  1
  Cd  Cd64  1  0.90062565  0.65848257  0.28033081  1
  Cd  Cd65  1  0.34151743  0.09937435  0.71966919  1
  Cd  Cd66  1  0.84151743  0.59937435  0.78033081  1
  Cd  Cd67  1  0.15848257  0.40062565  0.21966919  1
  Cd  Cd68  1  -0.00000000  0.00000000  -0.00000000  1
  Cd  Cd69  1  0.50000000  0.50000000  0.50000000  1
  Cd  Cd70  1  0.47047475  0.47047475  0.11344687  1
  Cd  Cd71  1  0.52952525  0.52952525  0.88655313  1
  Cd  Cd72  1  0.02952525  0.02952525  0.61344687  1
  Cd  Cd73  1  0.97047475  0.97047475  0.38655313  1
  Cd  Cd74  1  0.05210745  0.05210745  0.46388984  1
  Cd  Cd75  1  0.94789255  0.94789255  0.53611016  1
  Cd  Cd76  1  0.44789255  0.44789255  0.96388984  1
  Cd  Cd77  1  0.55210745  0.55210745  0.03611016  1
  Cd  Cd78  1  0.31500256  0.94388120  0.15715233  1
  Cd  Cd79  1  0.68499744  0.05611880  0.84284767  1
  Cd  Cd80  1  0.18499744  0.55611880  0.65715233  1
  Cd  Cd81  1  0.44388120  0.81500256  0.34284767  1
  Cd  Cd82  1  0.81500256  0.44388120  0.34284767  1
  Cd  Cd83  1  0.55611880  0.18499744  0.65715233  1
  Cd  Cd84  1  0.05611880  0.68499744  0.84284767  1
  Cd  Cd85  1  0.94388120  0.31500256  0.15715233  1
  Cd  Cd86  1  0.03874736  0.03874736  0.22795982  1
  Cd  Cd87  1  0.96125264  0.96125264  0.77204018  1
  Cd  Cd88  1  0.46125264  0.46125264  0.72795982  1
  Cd  Cd89  1  0.53874736  0.53874736  0.27204018  1
  Cd  Cd90  1  0.56534065  0.19126067  0.02323708  1
  Cd  Cd91  1  0.43465935  0.80873933  0.97676292  1
  Cd  Cd92  1  0.93465935  0.30873933  0.52323708  1
  Cd  Cd93  1  0.69126067  0.06534065  0.47676292  1
  Cd  Cd94  1  0.06534065  0.69126067  0.47676292  1
  Cd  Cd95  1  0.30873933  0.93465935  0.52323708  1
  Cd  Cd96  1  0.80873933  0.43465935  0.97676292  1
  Cd  Cd97  1  0.19126067  0.56534065  0.02323708  1
  Cd  Cd98  1  0.38527784  0.13391657  0.09158484  1
  Cd  Cd99  1  0.61472216  0.86608343  0.90841516  1
  Cd  Cd100  1  0.11472216  0.36608343  0.59158484  1
  Cd  Cd101  1  0.63391657  0.88527784  0.40841516  1
  Cd  Cd102  1  0.88527784  0.63391657  0.40841516  1
  Cd  Cd103  1  0.36608343  0.11472216  0.59158484  1
  Cd  Cd104  1  0.86608343  0.61472216  0.90841516  1
  Cd  Cd105  1  0.13391657  0.38527784  0.09158484  1
  Pd  Pd106  1  0.27245488  0.27245488  0.02998328  1
  Pd  Pd107  1  0.72754512  0.72754512  0.97001672  1
  Pd  Pd108  1  0.22754512  0.22754512  0.52998328  1
  Pd  Pd109  1  0.77245488  0.77245488  0.47001672  1
  Pd  Pd110  1  0.23017414  0.23017414  0.15674578  1
  Pd  Pd111  1  0.76982586  0.76982586  0.84325422  1
  Pd  Pd112  1  0.26982586  0.26982586  0.65674578  1
  Pd  Pd113  1  0.73017414  0.73017414  0.34325422  1
  Pd  Pd114  1  0.25440091  0.25440091  0.40717715  1
  Pd  Pd115  1  0.74559909  0.74559909  0.59282285  1
  Pd  Pd116  1  0.24559909  0.24559909  0.90717715  1
  Pd  Pd117  1  0.75440091  0.75440091  0.09282285  1
  Pd  Pd118  1  0.25403933  0.25403933  0.28098928  1
  Pd  Pd119  1  0.74596067  0.74596067  0.71901072  1
  Pd  Pd120  1  0.24596067  0.24596067  0.78098928  1
  Pd  Pd121  1  0.75403933  0.75403933  0.21901072  1
  Pd  Pd122  1  0.59784043  0.24304334  0.15497162  1
  Pd  Pd123  1  0.40215957  0.75695666  0.84502838  1
  Pd  Pd124  1  0.90215957  0.25695666  0.65497162  1
  Pd  Pd125  1  0.74304334  0.09784043  0.34502838  1
  Pd  Pd126  1  0.09784043  0.74304334  0.34502838  1
  Pd  Pd127  1  0.25695666  0.90215957  0.65497162  1
  Pd  Pd128  1  0.75695666  0.40215957  0.84502838  1
  Pd  Pd129  1  0.24304334  0.59784043  0.15497162  1
  Pd  Pd130  1  0.25619116  0.90587741  0.03515649  1
  Pd  Pd131  1  0.74380884  0.09412259  0.96484351  1
  Pd  Pd132  1  0.24380884  0.59412259  0.53515649  1
  Pd  Pd133  1  0.40587741  0.75619116  0.46484351  1
  Pd  Pd134  1  0.75619116  0.40587741  0.46484351  1
  Pd  Pd135  1  0.59412259  0.24380884  0.53515649  1
  Pd  Pd136  1  0.09412259  0.74380884  0.96484351  1
  Pd  Pd137  1  0.90587741  0.25619116  0.03515649  1
