# generated using pymatgen
data_Sm7Rh3
_symmetry_space_group_name_H-M   'P 1'
_cell_length_a   6.26236415
_cell_length_b   10.06539203
_cell_length_c   10.06539203
_cell_angle_alpha   120.04698952
_cell_angle_beta   90.00000000
_cell_angle_gamma   90.00000000
_symmetry_Int_Tables_number   1
_chemical_formula_structural   Sm7Rh3
_chemical_formula_sum   'Sm14 Rh6'
_cell_volume   549.19238512
_cell_formula_units_Z   2
loop_
 _symmetry_equiv_pos_site_id
 _symmetry_equiv_pos_as_xyz
  1  'x, y, z'
loop_
 _atom_site_type_symbol
 _atom_site_label
 _atom_site_symmetry_multiplicity
 _atom_site_fract_x
 _atom_site_fract_y
 _atom_site_fract_z
 _atom_site_occupancy
  Sm  Sm0  1  0.46235665  0.33331961  0.66668039  1
  Sm  Sm1  1  0.96235665  0.66668039  0.33331961  1
  Sm  Sm2  1  0.25118012  0.12527264  0.87472736  1
  Sm  Sm3  1  0.25110317  0.74950575  0.87480404  1
  Sm  Sm4  1  0.25110317  0.12519596  0.25049425  1
  Sm  Sm5  1  0.75118012  0.87472736  0.12527264  1
  Sm  Sm6  1  0.75110317  0.25049425  0.12519596  1
  Sm  Sm7  1  0.75110317  0.87480404  0.74950575  1
  Sm  Sm8  1  0.44574486  0.54189917  0.45810083  1
  Sm  Sm9  1  0.44585522  0.91637923  0.45809118  1
  Sm  Sm10  1  0.44585522  0.54190882  0.08362077  1
  Sm  Sm11  1  0.94574486  0.45810083  0.54189917  1
  Sm  Sm12  1  0.94585522  0.08362077  0.54190882  1
  Sm  Sm13  1  0.94585522  0.45809118  0.91637923  1
  Rh  Rh14  1  0.17965884  0.81173749  0.18826251  1
  Rh  Rh15  1  0.18007137  0.37646313  0.18821789  1
  Rh  Rh16  1  0.18007137  0.81178211  0.62353687  1
  Rh  Rh17  1  0.67965884  0.18826251  0.81173749  1
  Rh  Rh18  1  0.68007137  0.62353687  0.81178211  1
  Rh  Rh19  1  0.68007137  0.18821789  0.37646313  1
