# generated using pymatgen
data_Er3Os
_symmetry_space_group_name_H-M   'P 1'
_cell_length_a   6.23719536
_cell_length_b   7.32901123
_cell_length_c   8.98954443
_cell_angle_alpha   90.00000000
_cell_angle_beta   90.00000000
_cell_angle_gamma   90.00000000
_symmetry_Int_Tables_number   1
_chemical_formula_structural   Er3Os
_chemical_formula_sum   'Er12 Os4'
_cell_volume   410.93432355
_cell_formula_units_Z   4
loop_
 _symmetry_equiv_pos_site_id
 _symmetry_equiv_pos_as_xyz
  1  'x, y, z'
loop_
 _atom_site_type_symbol
 _atom_site_label
 _atom_site_symmetry_multiplicity
 _atom_site_fract_x
 _atom_site_fract_y
 _atom_site_fract_z
 _atom_site_occupancy
  Er  Er0  1  0.33263137  0.67647514  0.06224953  1
  Er  Er1  1  0.16736863  0.17647514  0.43775047  1
  Er  Er2  1  0.66736863  0.32352486  0.56224953  1
  Er  Er3  1  0.83263137  0.82352486  0.93775047  1
  Er  Er4  1  0.66736863  0.32352486  0.93775047  1
  Er  Er5  1  0.83263137  0.82352486  0.56224953  1
  Er  Er6  1  0.33263137  0.67647514  0.43775047  1
  Er  Er7  1  0.16736863  0.17647514  0.06224953  1
  Er  Er8  1  0.86922572  0.53651236  0.25000000  1
  Er  Er9  1  0.63077428  0.03651236  0.25000000  1
  Er  Er10  1  0.13077428  0.46348764  0.75000000  1
  Er  Er11  1  0.36922572  0.96348764  0.75000000  1
  Os  Os12  1  0.04321559  0.88245654  0.25000000  1
  Os  Os13  1  0.45678441  0.38245654  0.25000000  1
  Os  Os14  1  0.95678441  0.11754346  0.75000000  1
  Os  Os15  1  0.54321559  0.61754346  0.75000000  1
