# generated using pymatgen
data_Lu3Ru
_symmetry_space_group_name_H-M   'P 1'
_cell_length_a   6.13557908
_cell_length_b   7.22038419
_cell_length_c   8.91286846
_cell_angle_alpha   90.00000000
_cell_angle_beta   90.00000000
_cell_angle_gamma   90.00000000
_symmetry_Int_Tables_number   1
_chemical_formula_structural   Lu3Ru
_chemical_formula_sum   'Lu12 Ru4'
_cell_volume   394.85110856
_cell_formula_units_Z   4
loop_
 _symmetry_equiv_pos_site_id
 _symmetry_equiv_pos_as_xyz
  1  'x, y, z'
loop_
 _atom_site_type_symbol
 _atom_site_label
 _atom_site_symmetry_multiplicity
 _atom_site_fract_x
 _atom_site_fract_y
 _atom_site_fract_z
 _atom_site_occupancy
  Lu  Lu0  1  0.33339811  0.67655029  0.06324071  1
  Lu  Lu1  1  0.16660189  0.17655029  0.43675929  1
  Lu  Lu2  1  0.66660189  0.32344971  0.56324071  1
  Lu  Lu3  1  0.83339811  0.82344971  0.93675929  1
  Lu  Lu4  1  0.66660189  0.32344971  0.93675929  1
  Lu  Lu5  1  0.83339811  0.82344971  0.56324071  1
  Lu  Lu6  1  0.33339811  0.67655029  0.43675929  1
  Lu  Lu7  1  0.16660189  0.17655029  0.06324071  1
  Lu  Lu8  1  0.86870345  0.54052803  0.25000000  1
  Lu  Lu9  1  0.63129655  0.04052803  0.25000000  1
  Lu  Lu10  1  0.13129655  0.45947197  0.75000000  1
  Lu  Lu11  1  0.36870345  0.95947197  0.75000000  1
  Ru  Ru12  1  0.03984573  0.88408541  0.25000000  1
  Ru  Ru13  1  0.46015427  0.38408541  0.25000000  1
  Ru  Ru14  1  0.96015427  0.11591459  0.75000000  1
  Ru  Ru15  1  0.53984573  0.61591459  0.75000000  1
