# generated using pymatgen
data_Tm5Pb3
_symmetry_space_group_name_H-M   'P 1'
_cell_length_a   6.53869144
_cell_length_b   8.93452607
_cell_length_c   8.93795624
_cell_angle_alpha   119.98730614
_cell_angle_beta   90.00000000
_cell_angle_gamma   90.00000000
_symmetry_Int_Tables_number   1
_chemical_formula_structural   Tm5Pb3
_chemical_formula_sum   'Tm10 Pb6'
_cell_volume   452.25851968
_cell_formula_units_Z   2
loop_
 _symmetry_equiv_pos_site_id
 _symmetry_equiv_pos_as_xyz
  1  'x, y, z'
loop_
 _atom_site_type_symbol
 _atom_site_label
 _atom_site_symmetry_multiplicity
 _atom_site_fract_x
 _atom_site_fract_y
 _atom_site_fract_z
 _atom_site_occupancy
  Tm  Tm0  1  0.49999918  0.33335402  0.66676572  1
  Tm  Tm1  1  0.49999918  0.66658830  0.33323428  1
  Tm  Tm2  1  0.99999918  0.66664598  0.33323428  1
  Tm  Tm3  1  0.99999918  0.33341170  0.66676572  1
  Tm  Tm4  1  0.75000300  0.23881903  1.00000000  1
  Tm  Tm5  1  0.74999898  0.76112901  0.76120826  1
  Tm  Tm6  1  0.74999898  0.99992075  0.23879174  1
  Tm  Tm7  1  0.25000300  0.76118097  0.00000000  1
  Tm  Tm8  1  0.24999898  0.23887099  0.23879174  1
  Tm  Tm9  1  0.24999898  0.00007925  0.76120826  1
  Pb  Pb10  1  0.74999467  0.60556095  0.00000000  1
  Pb  Pb11  1  0.75000300  0.39439630  0.39430325  1
  Pb  Pb12  1  0.75000300  0.00009305  0.60569675  1
  Pb  Pb13  1  0.24999467  0.39443905  1.00000000  1
  Pb  Pb14  1  0.25000300  0.60560370  0.60569675  1
  Pb  Pb15  1  0.25000300  0.99990695  0.39430325  1
