# generated using pymatgen
data_La2(B2Rh3)3
_symmetry_space_group_name_H-M   'P 1'
_cell_length_a   5.69737074
_cell_length_b   5.69774542
_cell_length_c   8.54944090
_cell_angle_alpha   89.99782161
_cell_angle_beta   90.00435702
_cell_angle_gamma   119.99783502
_symmetry_Int_Tables_number   1
_chemical_formula_structural   La2(B2Rh3)3
_chemical_formula_sum   'La2 B6 Rh9'
_cell_volume   240.35620628
_cell_formula_units_Z   1
loop_
 _symmetry_equiv_pos_site_id
 _symmetry_equiv_pos_as_xyz
  1  'x, y, z'
loop_
 _atom_site_type_symbol
 _atom_site_label
 _atom_site_symmetry_multiplicity
 _atom_site_fract_x
 _atom_site_fract_y
 _atom_site_fract_z
 _atom_site_occupancy
  La  La0  1  0.00001097  1.00000000  0.28745249  1
  La  La1  1  -0.00000356  0.00000000  0.71269186  1
  B  B2  1  0.33338011  0.66677918  -0.00000234  1
  B  B3  1  0.66660093  0.33322082  -0.00000234  1
  B  B4  1  0.33337630  0.66676906  0.33342249  1
  B  B5  1  0.66660724  0.33323094  0.33342249  1
  B  B6  1  0.66661000  0.33323002  0.66653454  1
  B  B7  1  0.33337998  0.66676998  0.66653454  1
  Rh  Rh8  1  0.49995444  1.00000000  0.16336592  1
  Rh  Rh9  1  0.49996227  0.49995124  0.16334833  1
  Rh  Rh10  1  0.00001104  0.50004876  0.16334833  1
  Rh  Rh11  1  0.50000365  1.00000000  0.83662349  1
  Rh  Rh12  1  0.49999794  0.50002762  0.83658576  1
  Rh  Rh13  1  0.99997032  0.49997238  0.83658576  1
  Rh  Rh14  1  0.50000951  1.00000000  0.50000326  1
  Rh  Rh15  1  0.50002195  0.50001505  0.50004271  1
  Rh  Rh16  1  0.00000690  0.49998495  0.50004271  1
