# generated using pymatgen
data_Nd7Rh3
_symmetry_space_group_name_H-M   'P 1'
_cell_length_a   6.32268329
_cell_length_b   10.17447231
_cell_length_c   10.17447231
_cell_angle_alpha   120.00821699
_cell_angle_beta   90.00000000
_cell_angle_gamma   90.00000000
_symmetry_Int_Tables_number   1
_chemical_formula_structural   Nd7Rh3
_chemical_formula_sum   'Nd14 Rh6'
_cell_volume   566.78700309
_cell_formula_units_Z   2
loop_
 _symmetry_equiv_pos_site_id
 _symmetry_equiv_pos_as_xyz
  1  'x, y, z'
loop_
 _atom_site_type_symbol
 _atom_site_label
 _atom_site_symmetry_multiplicity
 _atom_site_fract_x
 _atom_site_fract_y
 _atom_site_fract_z
 _atom_site_occupancy
  Nd  Nd0  1  0.46499607  0.33332853  0.66667147  1
  Nd  Nd1  1  0.96499607  0.66667147  0.33332853  1
  Nd  Nd2  1  0.25197050  0.12558497  0.87441503  1
  Nd  Nd3  1  0.25204634  0.74883553  0.87441633  1
  Nd  Nd4  1  0.25204634  0.12558367  0.25116447  1
  Nd  Nd5  1  0.75197050  0.87441503  0.12558497  1
  Nd  Nd6  1  0.75204634  0.25116447  0.12558367  1
  Nd  Nd7  1  0.75204634  0.87441633  0.74883553  1
  Nd  Nd8  1  0.44193226  0.54182111  0.45817889  1
  Nd  Nd9  1  0.44184069  0.91638764  0.45823523  1
  Nd  Nd10  1  0.44184069  0.54176477  0.08361236  1
  Nd  Nd11  1  0.94193226  0.45817889  0.54182111  1
  Nd  Nd12  1  0.94184069  0.08361236  0.54176477  1
  Nd  Nd13  1  0.94184069  0.45823523  0.91638764  1
  Rh  Rh14  1  0.18202009  0.81132296  0.18867704  1
  Rh  Rh15  1  0.18215351  0.37739966  0.18872193  1
  Rh  Rh16  1  0.18215351  0.81127807  0.62260034  1
  Rh  Rh17  1  0.68202009  0.18867704  0.81132296  1
  Rh  Rh18  1  0.68215351  0.62260034  0.81127807  1
  Rh  Rh19  1  0.68215351  0.18872193  0.37739966  1
