# generated using pymatgen
data_Lu3Os
_symmetry_space_group_name_H-M   'P 1'
_cell_length_a   6.16079915
_cell_length_b   7.28959911
_cell_length_c   8.84813289
_cell_angle_alpha   90.00000000
_cell_angle_beta   90.00000000
_cell_angle_gamma   90.00000000
_symmetry_Int_Tables_number   1
_chemical_formula_structural   Lu3Os
_chemical_formula_sum   'Lu12 Os4'
_cell_volume   397.36748915
_cell_formula_units_Z   4
loop_
 _symmetry_equiv_pos_site_id
 _symmetry_equiv_pos_as_xyz
  1  'x, y, z'
loop_
 _atom_site_type_symbol
 _atom_site_label
 _atom_site_symmetry_multiplicity
 _atom_site_fract_x
 _atom_site_fract_y
 _atom_site_fract_z
 _atom_site_occupancy
  Lu  Lu0  1  0.33312218  0.67561294  0.06197651  1
  Lu  Lu1  1  0.16687782  0.17561294  0.43802349  1
  Lu  Lu2  1  0.66687782  0.32438706  0.56197651  1
  Lu  Lu3  1  0.83312218  0.82438706  0.93802349  1
  Lu  Lu4  1  0.66687782  0.32438706  0.93802349  1
  Lu  Lu5  1  0.83312218  0.82438706  0.56197651  1
  Lu  Lu6  1  0.33312218  0.67561294  0.43802349  1
  Lu  Lu7  1  0.16687782  0.17561294  0.06197651  1
  Lu  Lu8  1  0.87114936  0.53931149  0.25000000  1
  Lu  Lu9  1  0.62885064  0.03931149  0.25000000  1
  Lu  Lu10  1  0.12885064  0.46068851  0.75000000  1
  Lu  Lu11  1  0.37114936  0.96068851  0.75000000  1
  Os  Os12  1  0.03868609  0.88336632  0.25000000  1
  Os  Os13  1  0.46131391  0.38336632  0.25000000  1
  Os  Os14  1  0.96131391  0.11663368  0.75000000  1
  Os  Os15  1  0.53868609  0.61663368  0.75000000  1
