# generated using pymatgen
data_Ho3Ru
_symmetry_space_group_name_H-M   'P 1'
_cell_length_a   6.24906807
_cell_length_b   7.29095818
_cell_length_c   9.13379493
_cell_angle_alpha   90.00000000
_cell_angle_beta   90.00000000
_cell_angle_gamma   90.00000000
_symmetry_Int_Tables_number   1
_chemical_formula_structural   Ho3Ru
_chemical_formula_sum   'Ho12 Ru4'
_cell_volume   416.15116932
_cell_formula_units_Z   4
loop_
 _symmetry_equiv_pos_site_id
 _symmetry_equiv_pos_as_xyz
  1  'x, y, z'
loop_
 _atom_site_type_symbol
 _atom_site_label
 _atom_site_symmetry_multiplicity
 _atom_site_fract_x
 _atom_site_fract_y
 _atom_site_fract_z
 _atom_site_occupancy
  Ho  Ho0  1  0.33046369  0.67586730  0.06488923  1
  Ho  Ho1  1  0.16953631  0.17586730  0.43511077  1
  Ho  Ho2  1  0.66953631  0.32413270  0.56488923  1
  Ho  Ho3  1  0.83046369  0.82413270  0.93511077  1
  Ho  Ho4  1  0.66953631  0.32413270  0.93511077  1
  Ho  Ho5  1  0.83046369  0.82413270  0.56488923  1
  Ho  Ho6  1  0.33046369  0.67586730  0.43511077  1
  Ho  Ho7  1  0.16953631  0.17586730  0.06488923  1
  Ho  Ho8  1  0.86440772  0.53890550  0.25000000  1
  Ho  Ho9  1  0.63559228  0.03890550  0.25000000  1
  Ho  Ho10  1  0.13559228  0.46109450  0.75000000  1
  Ho  Ho11  1  0.36440772  0.96109450  0.75000000  1
  Ru  Ru12  1  0.04150611  0.88238461  0.25000000  1
  Ru  Ru13  1  0.45849389  0.38238461  0.25000000  1
  Ru  Ru14  1  0.95849389  0.11761539  0.75000000  1
  Ru  Ru15  1  0.54150611  0.61761539  0.75000000  1
