# generated using pymatgen
data_Tm5Rh3
_symmetry_space_group_name_H-M   'P 1'
_cell_length_a   6.16810326
_cell_length_b   8.19870591
_cell_length_c   8.19616142
_cell_angle_alpha   120.01027406
_cell_angle_beta   90.00000000
_cell_angle_gamma   90.00000000
_symmetry_Int_Tables_number   1
_chemical_formula_structural   Tm5Rh3
_chemical_formula_sum   'Tm10 Rh6'
_cell_volume   358.91623875
_cell_formula_units_Z   2
loop_
 _symmetry_equiv_pos_site_id
 _symmetry_equiv_pos_as_xyz
  1  'x, y, z'
loop_
 _atom_site_type_symbol
 _atom_site_label
 _atom_site_symmetry_multiplicity
 _atom_site_fract_x
 _atom_site_fract_y
 _atom_site_fract_z
 _atom_site_occupancy
  Tm  Tm0  1  0.49999912  0.33335142  0.66672502  1
  Tm  Tm1  1  0.49999912  0.66662639  0.33327498  1
  Tm  Tm2  1  -0.00000088  0.66664858  0.33327498  1
  Tm  Tm3  1  -0.00000088  0.33337361  0.66672502  1
  Tm  Tm4  1  0.75001169  0.25454902  0.00000000  1
  Tm  Tm5  1  0.74999411  0.74551237  0.74552755  1
  Tm  Tm6  1  0.74999411  0.99998481  0.25447245  1
  Tm  Tm7  1  0.25001169  0.74545098  1.00000000  1
  Tm  Tm8  1  0.24999411  0.25448763  0.25447245  1
  Tm  Tm9  1  0.24999411  0.00001519  0.74552755  1
  Rh  Rh10  1  0.74999666  0.60575102  1.00000000  1
  Rh  Rh11  1  0.75000259  0.39422714  0.39421539  1
  Rh  Rh12  1  0.75000259  0.00001175  0.60578461  1
  Rh  Rh13  1  0.24999666  0.39424898  0.00000000  1
  Rh  Rh14  1  0.25000259  0.60577286  0.60578461  1
  Rh  Rh15  1  0.25000259  0.99998825  0.39421539  1
