# generated using pymatgen
data_Tm3Os
_symmetry_space_group_name_H-M   'P 1'
_cell_length_a   6.21901942
_cell_length_b   7.33738305
_cell_length_c   8.92905390
_cell_angle_alpha   90.00000000
_cell_angle_beta   90.00000000
_cell_angle_gamma   90.00000000
_symmetry_Int_Tables_number   1
_chemical_formula_structural   Tm3Os
_chemical_formula_sum   'Tm12 Os4'
_cell_volume   407.44458438
_cell_formula_units_Z   4
loop_
 _symmetry_equiv_pos_site_id
 _symmetry_equiv_pos_as_xyz
  1  'x, y, z'
loop_
 _atom_site_type_symbol
 _atom_site_label
 _atom_site_symmetry_multiplicity
 _atom_site_fract_x
 _atom_site_fract_y
 _atom_site_fract_z
 _atom_site_occupancy
  Tm  Tm0  1  0.63187796  0.04027385  0.25000000  1
  Tm  Tm1  1  0.36812204  0.95972615  0.75000000  1
  Tm  Tm2  1  0.13187796  0.45972615  0.75000000  1
  Tm  Tm3  1  0.86812204  0.54027385  0.25000000  1
  Tm  Tm4  1  0.16752649  0.17504004  0.06230406  1
  Tm  Tm5  1  0.83247351  0.82495996  0.93769594  1
  Tm  Tm6  1  0.66752649  0.32495996  0.93769594  1
  Tm  Tm7  1  0.83247351  0.82495996  0.56230406  1
  Tm  Tm8  1  0.33247351  0.67504004  0.06230406  1
  Tm  Tm9  1  0.16752649  0.17504004  0.43769594  1
  Tm  Tm10  1  0.33247351  0.67504004  0.43769594  1
  Tm  Tm11  1  0.66752649  0.32495996  0.56230406  1
  Os  Os12  1  0.46057636  0.38272530  0.25000000  1
  Os  Os13  1  0.53942364  0.61727470  0.75000000  1
  Os  Os14  1  0.96057636  0.11727470  0.75000000  1
  Os  Os15  1  0.03942364  0.88272530  0.25000000  1
