# generated using pymatgen
data_Sm3(AgGe)4
_symmetry_space_group_name_H-M   'P 1'
_cell_length_a   4.42148572
_cell_length_b   7.19349506
_cell_length_c   8.47282418
_cell_angle_alpha   115.11927058
_cell_angle_beta   105.12475067
_cell_angle_gamma   90.00000000
_symmetry_Int_Tables_number   1
_chemical_formula_structural   Sm3(AgGe)4
_chemical_formula_sum   'Sm3 Ag4 Ge4'
_cell_volume   233.64869563
_cell_formula_units_Z   1
loop_
 _symmetry_equiv_pos_site_id
 _symmetry_equiv_pos_as_xyz
  1  'x, y, z'
loop_
 _atom_site_type_symbol
 _atom_site_label
 _atom_site_symmetry_multiplicity
 _atom_site_fract_x
 _atom_site_fract_y
 _atom_site_fract_z
 _atom_site_occupancy
  Sm  Sm0  1  0.87259035  0.37259035  0.74518069  1
  Sm  Sm1  1  0.12740965  0.62740965  0.25481931  1
  Sm  Sm2  1  -0.00000000  -0.00000000  -0.00000000  1
  Ag  Ag3  1  0.33117123  0.63618456  0.66234245  1
  Ag  Ag4  1  0.66882877  0.36381544  0.33765755  1
  Ag  Ag5  1  0.33117123  0.02615789  0.66234245  1
  Ag  Ag6  1  0.66882877  0.97384211  0.33765755  1
  Ge  Ge7  1  0.21654944  0.21654944  0.43309888  1
  Ge  Ge8  1  0.78345056  0.78345056  0.56690112  1
  Ge  Ge9  1  0.50000000  0.68235258  -0.00000000  1
  Ge  Ge10  1  0.50000000  0.31764742  -0.00000000  1
