# generated using pymatgen
data_Y3Ni7B2
_symmetry_space_group_name_H-M   'P 1'
_cell_length_a   5.07848517
_cell_length_b   5.07848517
_cell_length_c   14.25662728
_cell_angle_alpha   90.00000000
_cell_angle_beta   90.00000000
_cell_angle_gamma   119.99732269
_symmetry_Int_Tables_number   1
_chemical_formula_structural   Y3Ni7B2
_chemical_formula_sum   'Y6 Ni14 B4'
_cell_volume   318.43993022
_cell_formula_units_Z   2
loop_
 _symmetry_equiv_pos_site_id
 _symmetry_equiv_pos_as_xyz
  1  'x, y, z'
loop_
 _atom_site_type_symbol
 _atom_site_label
 _atom_site_symmetry_multiplicity
 _atom_site_fract_x
 _atom_site_fract_y
 _atom_site_fract_z
 _atom_site_occupancy
  Y  Y0  1  0.66669199  0.33330801  0.03082233  1
  Y  Y1  1  0.33330801  0.66669199  0.96917767  1
  Y  Y2  1  0.33330801  0.66669199  0.53082233  1
  Y  Y3  1  0.66669199  0.33330801  0.46917767  1
  Y  Y4  1  0.66669615  0.33330385  0.25000000  1
  Y  Y5  1  0.33330385  0.66669615  0.75000000  1
  Ni  Ni6  1  0.83437575  0.66875229  0.65034989  1
  Ni  Ni7  1  0.83438028  0.16561972  0.65035151  1
  Ni  Ni8  1  0.33124771  0.16562425  0.65034989  1
  Ni  Ni9  1  0.16562425  0.33124771  0.34965011  1
  Ni  Ni10  1  0.16561972  0.83438028  0.34964849  1
  Ni  Ni11  1  0.66875229  0.83437575  0.34965011  1
  Ni  Ni12  1  0.16562425  0.33124771  0.15034989  1
  Ni  Ni13  1  0.16561972  0.83438028  0.15035151  1
  Ni  Ni14  1  0.66875229  0.83437575  0.15034989  1
  Ni  Ni15  1  0.83437575  0.66875229  0.84965011  1
  Ni  Ni16  1  0.83438028  0.16561972  0.84964849  1
  Ni  Ni17  1  0.33124771  0.16562425  0.84965011  1
  Ni  Ni18  1  -0.00000000  0.00000000  0.50000000  1
  Ni  Ni19  1  -0.00000000  0.00000000  -0.00000000  1
  B  B20  1  0.66669523  0.33330477  0.75000000  1
  B  B21  1  0.33330477  0.66669523  0.25000000  1
  B  B22  1  0.00000080  0.99999920  0.75000000  1
  B  B23  1  0.99999920  0.00000080  0.25000000  1
