# generated using pymatgen
data_Pr3Tl5
_symmetry_space_group_name_H-M   'P 1'
_cell_length_a   6.78238286
_cell_length_b   6.78238286
_cell_length_c   10.63347360
_cell_angle_alpha   90.00000000
_cell_angle_beta   90.00000000
_cell_angle_gamma   102.78821226
_symmetry_Int_Tables_number   1
_chemical_formula_structural   Pr3Tl5
_chemical_formula_sum   'Pr6 Tl10'
_cell_volume   477.01406951
_cell_formula_units_Z   2
loop_
 _symmetry_equiv_pos_site_id
 _symmetry_equiv_pos_as_xyz
  1  'x, y, z'
loop_
 _atom_site_type_symbol
 _atom_site_label
 _atom_site_symmetry_multiplicity
 _atom_site_fract_x
 _atom_site_fract_y
 _atom_site_fract_z
 _atom_site_occupancy
  Pr  Pr0  1  0.62919050  0.62919050  0.25000000  1
  Pr  Pr1  1  0.37080950  0.37080950  0.75000000  1
  Pr  Pr2  1  0.79829815  0.20170185  0.50000000  1
  Pr  Pr3  1  0.79829815  0.20170185  -0.00000000  1
  Pr  Pr4  1  0.20170185  0.79829815  0.50000000  1
  Pr  Pr5  1  0.20170185  0.79829815  0.00000000  1
  Tl  Tl6  1  0.00402456  0.00402456  0.25000000  1
  Tl  Tl7  1  0.99597544  0.99597544  0.75000000  1
  Tl  Tl8  1  0.30675713  0.30675713  0.05263167  1
  Tl  Tl9  1  0.69324287  0.69324287  0.94736833  1
  Tl  Tl10  1  0.30675713  0.30675713  0.44736833  1
  Tl  Tl11  1  0.69324287  0.69324287  0.55263167  1
  Tl  Tl12  1  0.05984025  0.50826566  0.25000000  1
  Tl  Tl13  1  0.49173434  0.94015975  0.75000000  1
  Tl  Tl14  1  0.94015975  0.49173434  0.75000000  1
  Tl  Tl15  1  0.50826566  0.05984025  0.25000000  1
