# generated using pymatgen
data_NdAs2Pd3
_symmetry_space_group_name_H-M   'P 1'
_cell_length_a   4.15496791
_cell_length_b   8.65753349
_cell_length_c   10.08934484
_cell_angle_alpha   107.50624565
_cell_angle_beta   90.00000000
_cell_angle_gamma   103.88432798
_symmetry_Int_Tables_number   1
_chemical_formula_structural   NdAs2Pd3
_chemical_formula_sum   'Nd3 As6 Pd9'
_cell_volume   334.98638260
_cell_formula_units_Z   3
loop_
 _symmetry_equiv_pos_site_id
 _symmetry_equiv_pos_as_xyz
  1  'x, y, z'
loop_
 _atom_site_type_symbol
 _atom_site_label
 _atom_site_symmetry_multiplicity
 _atom_site_fract_x
 _atom_site_fract_y
 _atom_site_fract_z
 _atom_site_occupancy
  Nd  Nd0  1  0.84518709  0.69037417  0.29897375  1
  Nd  Nd1  1  0.15481291  0.30962583  0.70102625  1
  Nd  Nd2  1  0.00000000  0.00000000  -0.00000000  1
  As  As3  1  0.80081732  0.60163464  0.86832992  1
  As  As4  1  0.19918268  0.39836536  0.13167008  1
  As  As5  1  0.53917592  0.07835184  0.78607960  1
  As  As6  1  0.46082408  0.92164816  0.21392040  1
  As  As7  1  0.63600346  0.27200692  0.45389487  1
  As  As8  1  0.36399654  0.72799308  0.54610513  1
  Pd  Pd9  1  0.95709105  0.91418211  0.66867763  1
  Pd  Pd10  1  0.04290895  0.08581789  0.33132237  1
  Pd  Pd11  1  0.77890394  0.55780788  0.60922274  1
  Pd  Pd12  1  0.22109606  0.44219212  0.39077726  1
  Pd  Pd13  1  0.37784479  0.75568959  0.80093996  1
  Pd  Pd14  1  0.62215521  0.24431041  0.19906004  1
  Pd  Pd15  1  0.50000000  0.00000000  0.50000000  1
  Pd  Pd16  1  0.68027892  0.36055785  0.96718741  1
  Pd  Pd17  1  0.31972108  0.63944215  0.03281259  1
