# generated using pymatgen
data_CeB2Ru
_symmetry_space_group_name_H-M   'P 1'
_cell_length_a   5.38226792
_cell_length_b   5.93043434
_cell_length_c   6.48391369
_cell_angle_alpha   90.00000000
_cell_angle_beta   90.00000000
_cell_angle_gamma   90.00000000
_symmetry_Int_Tables_number   1
_chemical_formula_structural   CeB2Ru
_chemical_formula_sum   'Ce4 B8 Ru4'
_cell_volume   206.96125032
_cell_formula_units_Z   4
loop_
 _symmetry_equiv_pos_site_id
 _symmetry_equiv_pos_as_xyz
  1  'x, y, z'
loop_
 _atom_site_type_symbol
 _atom_site_label
 _atom_site_symmetry_multiplicity
 _atom_site_fract_x
 _atom_site_fract_y
 _atom_site_fract_z
 _atom_site_occupancy
  Ce  Ce0  1  0.75000000  0.50002540  0.15577677  1
  Ce  Ce1  1  0.75000000  0.00002540  0.34422323  1
  Ce  Ce2  1  0.25000000  0.49997460  0.84422323  1
  Ce  Ce3  1  0.25000000  0.99997460  0.65577677  1
  B  B4  1  0.91068841  0.12295979  0.96236479  1
  B  B5  1  0.58931159  0.62295979  0.53763521  1
  B  B6  1  0.41068841  0.87704021  0.03763521  1
  B  B7  1  0.08931159  0.37704021  0.46236479  1
  B  B8  1  0.08931159  0.87704021  0.03763521  1
  B  B9  1  0.41068841  0.37704021  0.46236479  1
  B  B10  1  0.58931159  0.12295979  0.96236479  1
  B  B11  1  0.91068841  0.62295979  0.53763521  1
  Ru  Ru12  1  0.75000000  0.30934218  0.68478578  1
  Ru  Ru13  1  0.75000000  0.80934218  0.81521422  1
  Ru  Ru14  1  0.25000000  0.69065782  0.31521422  1
  Ru  Ru15  1  0.25000000  0.19065782  0.18478578  1
