# generated using pymatgen
data_Lu5Ru2
_symmetry_space_group_name_H-M   'P 1'
_cell_length_a   6.17469193
_cell_length_b   7.18719741
_cell_length_c   8.29416971
_cell_angle_alpha   97.00829167
_cell_angle_beta   111.85326934
_cell_angle_gamma   90.00000000
_symmetry_Int_Tables_number   1
_chemical_formula_structural   Lu5Ru2
_chemical_formula_sum   'Lu10 Ru4'
_cell_volume   338.66934139
_cell_formula_units_Z   2
loop_
 _symmetry_equiv_pos_site_id
 _symmetry_equiv_pos_as_xyz
  1  'x, y, z'
loop_
 _atom_site_type_symbol
 _atom_site_label
 _atom_site_symmetry_multiplicity
 _atom_site_fract_x
 _atom_site_fract_y
 _atom_site_fract_z
 _atom_site_occupancy
  Lu  Lu0  1  0.52045120  0.08341192  0.81189094  1
  Lu  Lu1  1  0.47954880  0.91658808  0.18810906  1
  Lu  Lu2  1  0.70856026  0.41658808  0.18810906  1
  Lu  Lu3  1  0.29143974  0.58341192  0.81189094  1
  Lu  Lu4  1  0.30233129  0.31228028  0.43331361  1
  Lu  Lu5  1  0.69766871  0.68771972  0.56668639  1
  Lu  Lu6  1  0.86901767  0.18771972  0.56668639  1
  Lu  Lu7  1  0.13098233  0.81228028  0.43331361  1
  Lu  Lu8  1  0.08046969  0.25000000  1.00000000  1
  Lu  Lu9  1  0.91953031  0.75000000  0.00000000  1
  Ru  Ru10  1  0.32109739  0.57769983  0.22038370  1
  Ru  Ru11  1  0.67890261  0.42230017  0.77961630  1
  Ru  Ru12  1  0.10071369  0.92230017  0.77961630  1
  Ru  Ru13  1  0.89928631  0.07769983  0.22038370  1
