# generated using pymatgen
data_LaAlNi
_symmetry_space_group_name_H-M   'P 1'
_cell_length_a   4.16465957
_cell_length_b   7.17092575
_cell_length_c   16.00797332
_cell_angle_alpha   90.00000000
_cell_angle_beta   90.00000000
_cell_angle_gamma   90.00000000
_symmetry_Int_Tables_number   1
_chemical_formula_structural   LaAlNi
_chemical_formula_sum   'La8 Al8 Ni8'
_cell_volume   478.06955174
_cell_formula_units_Z   8
loop_
 _symmetry_equiv_pos_site_id
 _symmetry_equiv_pos_as_xyz
  1  'x, y, z'
loop_
 _atom_site_type_symbol
 _atom_site_label
 _atom_site_symmetry_multiplicity
 _atom_site_fract_x
 _atom_site_fract_y
 _atom_site_fract_z
 _atom_site_occupancy
  La  La0  1  0.75000000  0.85333384  0.93945610  1
  La  La1  1  0.25000000  0.14666616  0.06054390  1
  La  La2  1  0.25000000  0.64666616  0.43945610  1
  La  La3  1  0.75000000  0.35333384  0.56054390  1
  La  La4  1  0.75000000  0.98723881  0.72204135  1
  La  La5  1  0.25000000  0.01276119  0.27795865  1
  La  La6  1  0.25000000  0.51276119  0.22204135  1
  La  La7  1  0.75000000  0.48723881  0.77795865  1
  Al  Al8  1  0.75000000  0.83134232  0.14526560  1
  Al  Al9  1  0.25000000  0.16865768  0.85473440  1
  Al  Al10  1  0.25000000  0.66865768  0.64526560  1
  Al  Al11  1  0.75000000  0.33134232  0.35473440  1
  Al  Al12  1  0.75000000  0.99236422  0.44018939  1
  Al  Al13  1  0.25000000  0.00763578  0.55981061  1
  Al  Al14  1  0.25000000  0.50763578  0.94018939  1
  Al  Al15  1  0.75000000  0.49236422  0.05981061  1
  Ni  Ni16  1  0.75000000  0.79468578  0.57085441  1
  Ni  Ni17  1  0.25000000  0.20531422  0.42914559  1
  Ni  Ni18  1  0.25000000  0.70531422  0.07085441  1
  Ni  Ni19  1  0.75000000  0.29468578  0.92914559  1
  Ni  Ni20  1  0.75000000  0.72705852  0.31847998  1
  Ni  Ni21  1  0.25000000  0.27294148  0.68152002  1
  Ni  Ni22  1  0.25000000  0.77294148  0.81847998  1
  Ni  Ni23  1  0.75000000  0.22705852  0.18152002  1
