# generated using pymatgen
data_Er5Pb3
_symmetry_space_group_name_H-M   'P 1'
_cell_length_a   6.58284356
_cell_length_b   9.00098672
_cell_length_c   8.99779717
_cell_angle_alpha   120.01172228
_cell_angle_beta   90.00000000
_cell_angle_gamma   90.00000000
_symmetry_Int_Tables_number   1
_chemical_formula_structural   Er5Pb3
_chemical_formula_sum   'Er10 Pb6'
_cell_volume   461.65673329
_cell_formula_units_Z   2
loop_
 _symmetry_equiv_pos_site_id
 _symmetry_equiv_pos_as_xyz
  1  'x, y, z'
loop_
 _atom_site_type_symbol
 _atom_site_label
 _atom_site_symmetry_multiplicity
 _atom_site_fract_x
 _atom_site_fract_y
 _atom_site_fract_z
 _atom_site_occupancy
  Er  Er0  1  0.50000039  0.33331459  0.66666725  1
  Er  Er1  1  0.50000039  0.66664734  0.33333275  1
  Er  Er2  1  0.00000039  0.66668541  0.33333275  1
  Er  Er3  1  0.00000039  0.33335266  0.66666725  1
  Er  Er4  1  0.74999945  0.24039419  0.00000000  1
  Er  Er5  1  0.75000222  0.75979985  0.75965730  1
  Er  Er6  1  0.75000222  0.00014255  0.24034270  1
  Er  Er7  1  0.24999945  0.75960581  1.00000000  1
  Er  Er8  1  0.25000222  0.24020015  0.24034270  1
  Er  Er9  1  0.25000222  0.99985745  0.75965730  1
  Pb  Pb10  1  0.74998989  0.60804653  1.00000000  1
  Pb  Pb11  1  0.75000272  0.39215939  0.39220363  1
  Pb  Pb12  1  0.75000272  0.99995577  0.60779637  1
  Pb  Pb13  1  0.24998989  0.39195347  0.00000000  1
  Pb  Pb14  1  0.25000272  0.60784061  0.60779637  1
  Pb  Pb15  1  0.25000272  0.00004423  0.39220363  1
