# generated using pymatgen
data_Er3Ru
_symmetry_space_group_name_H-M   'P 1'
_cell_length_a   6.23665521
_cell_length_b   7.27244415
_cell_length_c   9.10111655
_cell_angle_alpha   90.00000000
_cell_angle_beta   90.00000000
_cell_angle_gamma   90.00000000
_symmetry_Int_Tables_number   1
_chemical_formula_structural   Er3Ru
_chemical_formula_sum   'Er12 Ru4'
_cell_volume   412.78775488
_cell_formula_units_Z   4
loop_
 _symmetry_equiv_pos_site_id
 _symmetry_equiv_pos_as_xyz
  1  'x, y, z'
loop_
 _atom_site_type_symbol
 _atom_site_label
 _atom_site_symmetry_multiplicity
 _atom_site_fract_x
 _atom_site_fract_y
 _atom_site_fract_z
 _atom_site_occupancy
  Er  Er0  1  0.33127178  0.67705579  0.06400500  1
  Er  Er1  1  0.16872822  0.17705579  0.43599500  1
  Er  Er2  1  0.66872822  0.32294421  0.56400500  1
  Er  Er3  1  0.83127178  0.82294421  0.93599500  1
  Er  Er4  1  0.66872822  0.32294421  0.93599500  1
  Er  Er5  1  0.83127178  0.82294421  0.56400500  1
  Er  Er6  1  0.33127178  0.67705579  0.43599500  1
  Er  Er7  1  0.16872822  0.17705579  0.06400500  1
  Er  Er8  1  0.86643048  0.53825342  0.25000000  1
  Er  Er9  1  0.63356952  0.03825342  0.25000000  1
  Er  Er10  1  0.13356952  0.46174658  0.75000000  1
  Er  Er11  1  0.36643048  0.96174658  0.75000000  1
  Ru  Ru12  1  0.04214349  0.88385624  0.25000000  1
  Ru  Ru13  1  0.45785651  0.38385624  0.25000000  1
  Ru  Ru14  1  0.95785651  0.11614376  0.75000000  1
  Ru  Ru15  1  0.54214349  0.61614376  0.75000000  1
