# generated using pymatgen
data_Nd3Tl5
_symmetry_space_group_name_H-M   'P 1'
_cell_length_a   6.72850881
_cell_length_b   6.72850881
_cell_length_c   10.61972794
_cell_angle_alpha   90.00000000
_cell_angle_beta   90.00000000
_cell_angle_gamma   102.81596107
_symmetry_Int_Tables_number   1
_chemical_formula_structural   Nd3Tl5
_chemical_formula_sum   'Nd6 Tl10'
_cell_volume   468.80763433
_cell_formula_units_Z   2
loop_
 _symmetry_equiv_pos_site_id
 _symmetry_equiv_pos_as_xyz
  1  'x, y, z'
loop_
 _atom_site_type_symbol
 _atom_site_label
 _atom_site_symmetry_multiplicity
 _atom_site_fract_x
 _atom_site_fract_y
 _atom_site_fract_z
 _atom_site_occupancy
  Nd  Nd0  1  0.62858238  0.62858238  0.25000000  1
  Nd  Nd1  1  0.37141762  0.37141762  0.75000000  1
  Nd  Nd2  1  0.79863704  0.20136296  0.50000000  1
  Nd  Nd3  1  0.79863704  0.20136296  0.00000000  1
  Nd  Nd4  1  0.20136296  0.79863704  0.50000000  1
  Nd  Nd5  1  0.20136296  0.79863704  0.00000000  1
  Tl  Tl6  1  0.00370542  0.00370542  0.25000000  1
  Tl  Tl7  1  0.99629458  0.99629458  0.75000000  1
  Tl  Tl8  1  0.30674229  0.30674229  0.05131243  1
  Tl  Tl9  1  0.69325771  0.69325771  0.94868757  1
  Tl  Tl10  1  0.30674229  0.30674229  0.44868757  1
  Tl  Tl11  1  0.69325771  0.69325771  0.55131243  1
  Tl  Tl12  1  0.06017709  0.51001249  0.25000000  1
  Tl  Tl13  1  0.48998751  0.93982291  0.75000000  1
  Tl  Tl14  1  0.93982291  0.48998751  0.75000000  1
  Tl  Tl15  1  0.51001249  0.06017709  0.25000000  1
