# generated using pymatgen
data_NbNiB2
_symmetry_space_group_name_H-M   'P 1'
_cell_length_a   3.12886467
_cell_length_b   6.04930993
_cell_length_c   8.21034516
_cell_angle_alpha   90.00000000
_cell_angle_beta   90.00000000
_cell_angle_gamma   90.00000000
_symmetry_Int_Tables_number   1
_chemical_formula_structural   NbNiB2
_chemical_formula_sum   'Nb4 Ni4 B8'
_cell_volume   155.40107909
_cell_formula_units_Z   4
loop_
 _symmetry_equiv_pos_site_id
 _symmetry_equiv_pos_as_xyz
  1  'x, y, z'
loop_
 _atom_site_type_symbol
 _atom_site_label
 _atom_site_symmetry_multiplicity
 _atom_site_fract_x
 _atom_site_fract_y
 _atom_site_fract_z
 _atom_site_occupancy
  Nb  Nb0  1  0.75000000  0.36777722  0.63269842  1
  Nb  Nb1  1  0.75000000  0.86777722  0.86730158  1
  Nb  Nb2  1  0.25000000  0.63222278  0.36730158  1
  Nb  Nb3  1  0.25000000  0.13222278  0.13269842  1
  Ni  Ni4  1  0.75000000  0.50102166  0.11513980  1
  Ni  Ni5  1  0.75000000  0.00102166  0.38486020  1
  Ni  Ni6  1  0.25000000  0.49897834  0.88486020  1
  Ni  Ni7  1  0.25000000  0.99897834  0.61513980  1
  B  B8  1  0.75000000  0.25875522  0.92313167  1
  B  B9  1  0.75000000  0.75875522  0.57686833  1
  B  B10  1  0.25000000  0.74124478  0.07686833  1
  B  B11  1  0.25000000  0.24124478  0.42313167  1
  B  B12  1  0.75000000  0.32908878  0.33295824  1
  B  B13  1  0.75000000  0.82908878  0.16704176  1
  B  B14  1  0.25000000  0.67091122  0.66704176  1
  B  B15  1  0.25000000  0.17091122  0.83295824  1
