# generated using pymatgen
data_Sm3(CuSn)4
_symmetry_space_group_name_H-M   'P 1'
_cell_length_a   4.52431901
_cell_length_b   6.93886608
_cell_length_c   8.48703396
_cell_angle_alpha   114.12898344
_cell_angle_beta   105.45865841
_cell_angle_gamma   90.00000000
_symmetry_Int_Tables_number   1
_chemical_formula_structural   Sm3(CuSn)4
_chemical_formula_sum   'Sm3 Cu4 Sn4'
_cell_volume   232.55765025
_cell_formula_units_Z   1
loop_
 _symmetry_equiv_pos_site_id
 _symmetry_equiv_pos_as_xyz
  1  'x, y, z'
loop_
 _atom_site_type_symbol
 _atom_site_label
 _atom_site_symmetry_multiplicity
 _atom_site_fract_x
 _atom_site_fract_y
 _atom_site_fract_z
 _atom_site_occupancy
  Sm  Sm0  1  0.86770391  0.36770391  0.73540782  1
  Sm  Sm1  1  0.13229609  0.63229609  0.26459218  1
  Sm  Sm2  1  0.00000000  0.00000000  0.00000000  1
  Cu  Cu3  1  0.33053100  0.64327582  0.66106200  1
  Cu  Cu4  1  0.66946900  0.35672418  0.33893800  1
  Cu  Cu5  1  0.33053100  0.01778618  0.66106200  1
  Cu  Cu6  1  0.66946900  0.98221382  0.33893800  1
  Sn  Sn7  1  0.21570897  0.21570897  0.43141793  1
  Sn  Sn8  1  0.78429103  0.78429103  0.56858207  1
  Sn  Sn9  1  0.50000000  0.70159597  0.00000000  1
  Sn  Sn10  1  0.50000000  0.29840403  0.00000000  1
