# generated using pymatgen
data_Nd(In2Pd)2
_symmetry_space_group_name_H-M   'P 1'
_cell_length_a   4.61859370
_cell_length_b   10.03358252
_cell_length_c   33.48447258
_cell_angle_alpha   90.00000000
_cell_angle_beta   90.00000000
_cell_angle_gamma   90.00000000
_symmetry_Int_Tables_number   1
_chemical_formula_structural   Nd(In2Pd)2
_chemical_formula_sum   'Nd10 In40 Pd20'
_cell_volume   1551.70531721
_cell_formula_units_Z   10
loop_
 _symmetry_equiv_pos_site_id
 _symmetry_equiv_pos_as_xyz
  1  'x, y, z'
loop_
 _atom_site_type_symbol
 _atom_site_label
 _atom_site_symmetry_multiplicity
 _atom_site_fract_x
 _atom_site_fract_y
 _atom_site_fract_z
 _atom_site_occupancy
  Nd  Nd0  1  0.50000000  0.95747323  0.63889130  1
  Nd  Nd1  1  0.50000000  0.04252677  0.13889130  1
  Nd  Nd2  1  0.50000000  0.82716116  0.33767102  1
  Nd  Nd3  1  0.50000000  0.17283884  0.83767102  1
  Nd  Nd4  1  0.50000000  0.78305900  0.93837536  1
  Nd  Nd5  1  0.50000000  0.21694100  0.43837536  1
  Nd  Nd6  1  0.00000000  0.70354774  0.49982796  1
  Nd  Nd7  1  0.00000000  0.29645226  0.99982796  1
  Nd  Nd8  1  0.00000000  0.45536714  0.69912765  1
  Nd  Nd9  1  0.00000000  0.54463286  0.19912765  1
  In  In10  1  0.50000000  0.96528975  0.75018467  1
  In  In11  1  0.50000000  0.03471025  0.25018467  1
  In  In12  1  0.50000000  0.88092662  0.43920907  1
  In  In13  1  0.50000000  0.11907338  0.93920907  1
  In  In14  1  0.50000000  0.82600793  0.83376629  1
  In  In15  1  0.50000000  0.17399207  0.33376629  1
  In  In16  1  0.50000000  0.80652571  0.05203165  1
  In  In17  1  0.50000000  0.19347429  0.55203165  1
  In  In18  1  0.50000000  0.71151753  0.56760092  1
  In  In19  1  0.50000000  0.28848247  0.06760092  1
  In  In20  1  0.50000000  0.61479818  0.65132867  1
  In  In21  1  0.50000000  0.38520182  0.15132867  1
  In  In22  1  0.50000000  0.52737928  0.86197125  1
  In  In23  1  0.50000000  0.47262072  0.36197125  1
  In  In24  1  0.50000000  0.47031373  0.50857354  1
  In  In25  1  0.50000000  0.52968627  0.00857354  1
  In  In26  1  0.50000000  0.44680848  0.77136849  1
  In  In27  1  0.50000000  0.55319152  0.27136849  1
  In  In28  1  0.50000000  0.30791034  0.64044661  1
  In  In29  1  0.50000000  0.69208966  0.14044661  1
  In  In30  1  0.00000000  0.97846305  0.89046753  1
  In  In31  1  0.00000000  0.02153695  0.39046753  1
  In  In32  1  0.00000000  0.95095438  0.57027413  1
  In  In33  1  0.00000000  0.04904562  0.07027413  1
  In  In34  1  -0.00000000  0.94786700  0.98617055  1
  In  In35  1  0.00000000  0.05213300  0.48617055  1
  In  In36  1  0.00000000  0.87941310  0.18391842  1
  In  In37  1  0.00000000  0.12058690  0.68391842  1
  In  In38  1  -0.00000000  0.80749887  0.69541190  1
  In  In39  1  0.00000000  0.19250113  0.19541190  1
  In  In40  1  0.00000000  0.79651341  0.26961028  1
  In  In41  1  -0.00000000  0.20348659  0.76961028  1
  In  In42  1  0.00000000  0.67239817  0.78113156  1
  In  In43  1  -0.00000000  0.32760183  0.28113156  1
  In  In44  1  0.00000000  0.56088615  0.93663566  1
  In  In45  1  0.00000000  0.43911385  0.43663566  1
  In  In46  1  0.00000000  0.46586148  0.58300158  1
  In  In47  1  0.00000000  0.53413852  0.08300158  1
  In  In48  1  0.00000000  0.29689707  0.89511205  1
  In  In49  1  0.00000000  0.70310293  0.39511205  1
  Pd  Pd50  1  0.50000000  0.93809512  0.51970088  1
  Pd  Pd51  1  0.50000000  0.06190488  0.01970088  1
  Pd  Pd52  1  0.50000000  0.77706516  0.22051363  1
  Pd  Pd53  1  0.50000000  0.22293484  0.72051363  1
  Pd  Pd54  1  0.50000000  0.69590527  0.73076357  1
  Pd  Pd55  1  0.50000000  0.30409473  0.23076357  1
  Pd  Pd56  1  0.50000000  0.39309276  0.93455558  1
  Pd  Pd57  1  0.50000000  0.60690724  0.43455558  1
  Pd  Pd58  1  -0.00000000  0.95307574  0.80602989  1
  Pd  Pd59  1  0.00000000  0.04692426  0.30602989  1
  Pd  Pd60  1  0.00000000  0.79771183  0.10459804  1
  Pd  Pd61  1  0.00000000  0.20228817  0.60459804  1
  Pd  Pd62  1  0.00000000  0.71549700  0.61563687  1
  Pd  Pd63  1  0.00000000  0.28450300  0.11563687  1
  Pd  Pd64  1  0.00000000  0.70742695  0.86551284  1
  Pd  Pd65  1  -0.00000000  0.29257305  0.36551284  1
  Pd  Pd66  1  0.00000000  0.68437029  0.01280494  1
  Pd  Pd67  1  -0.00000000  0.31562971  0.51280494  1
  Pd  Pd68  1  0.00000000  0.42231193  0.82039567  1
  Pd  Pd69  1  0.00000000  0.57768807  0.32039567  1
