# generated using pymatgen
data_Er3Co
_symmetry_space_group_name_H-M   'P 1'
_cell_length_a   6.10459626
_cell_length_b   6.83895334
_cell_length_c   9.28594178
_cell_angle_alpha   90.00000000
_cell_angle_beta   90.00000000
_cell_angle_gamma   90.00000000
_symmetry_Int_Tables_number   1
_chemical_formula_structural   Er3Co
_chemical_formula_sum   'Er12 Co4'
_cell_volume   387.67923821
_cell_formula_units_Z   4
loop_
 _symmetry_equiv_pos_site_id
 _symmetry_equiv_pos_as_xyz
  1  'x, y, z'
loop_
 _atom_site_type_symbol
 _atom_site_label
 _atom_site_symmetry_multiplicity
 _atom_site_fract_x
 _atom_site_fract_y
 _atom_site_fract_z
 _atom_site_occupancy
  Er  Er0  1  0.32328277  0.67575838  0.06567329  1
  Er  Er1  1  0.17671723  0.17575838  0.43432671  1
  Er  Er2  1  0.67671723  0.32424162  0.56567329  1
  Er  Er3  1  0.82328277  0.82424162  0.93432671  1
  Er  Er4  1  0.67671723  0.32424162  0.93432671  1
  Er  Er5  1  0.82328277  0.82424162  0.56567329  1
  Er  Er6  1  0.32328277  0.67575838  0.43432671  1
  Er  Er7  1  0.17671723  0.17575838  0.06567329  1
  Er  Er8  1  0.86568199  0.54016802  0.25000000  1
  Er  Er9  1  0.63431801  0.04016802  0.25000000  1
  Er  Er10  1  0.13431801  0.45983198  0.75000000  1
  Er  Er11  1  0.36568199  0.95983198  0.75000000  1
  Co  Co12  1  0.05354401  0.88873059  0.25000000  1
  Co  Co13  1  0.44645599  0.38873059  0.25000000  1
  Co  Co14  1  0.94645599  0.11126941  0.75000000  1
  Co  Co15  1  0.55354401  0.61126941  0.75000000  1
