# generated using pymatgen
data_La3Os
_symmetry_space_group_name_H-M   'P 1'
_cell_length_a   6.61812768
_cell_length_b   7.49141532
_cell_length_c   10.11664482
_cell_angle_alpha   90.00000000
_cell_angle_beta   90.00000000
_cell_angle_gamma   90.00000000
_symmetry_Int_Tables_number   1
_chemical_formula_structural   La3Os
_chemical_formula_sum   'La12 Os4'
_cell_volume   501.57458114
_cell_formula_units_Z   4
loop_
 _symmetry_equiv_pos_site_id
 _symmetry_equiv_pos_as_xyz
  1  'x, y, z'
loop_
 _atom_site_type_symbol
 _atom_site_label
 _atom_site_symmetry_multiplicity
 _atom_site_fract_x
 _atom_site_fract_y
 _atom_site_fract_z
 _atom_site_occupancy
  La  La0  1  0.32611671  0.67025353  0.07024920  1
  La  La1  1  0.17388329  0.17025353  0.42975080  1
  La  La2  1  0.67388329  0.32974647  0.57024920  1
  La  La3  1  0.82611671  0.82974647  0.92975080  1
  La  La4  1  0.67388329  0.32974647  0.92975080  1
  La  La5  1  0.82611671  0.82974647  0.57024920  1
  La  La6  1  0.32611671  0.67025353  0.42975080  1
  La  La7  1  0.17388329  0.17025353  0.07024920  1
  La  La8  1  0.84838858  0.54452136  0.25000000  1
  La  La9  1  0.65161142  0.04452136  0.25000000  1
  La  La10  1  0.15161142  0.45547864  0.75000000  1
  La  La11  1  0.34838858  0.95547864  0.75000000  1
  Os  Os12  1  0.05291716  0.88098211  0.25000000  1
  Os  Os13  1  0.44708284  0.38098211  0.25000000  1
  Os  Os14  1  0.94708284  0.11901789  0.75000000  1
  Os  Os15  1  0.55291716  0.61901789  0.75000000  1
